output/Khadpabandh/csv/Losses.csv
Element,  Total(W), Total(var),  I2R(W), I2X(var), No-load(W), No-load(var)
Line.S01, 9820.038, 6351.847, 9820.038, 6351.847, 0, 0
Line.L1, 2.121356E-8, -8.306034, 2.121356E-8, -8.306034, 0, 0
Line.L2, 1504.7, 973.3146, 1504.7, 973.3146, 0, 0
Line.L3, 9242.265, 5974.255, 9242.265, 5974.255, 0, 0
Line.L4, 4128.18, 2665.726, 4128.18, 2665.726, 0, 0
Line.L5, 3297.439, 2128.086, 3297.439, 2128.086, 0, 0
Line.L6, 4616.454, 2979.449, 4616.454, 2979.449, 0, 0
Line.L7, 12.13384, -21.64834, 12.13384, -21.64834, 0, 0
Line.L8, 11.60336, -37.61985, 11.60336, -37.61985, 0, 0
Line.L9, 5.944971, -56.50501, 5.944971, -56.50501, 0, 0
Line.L10, 73.47886, 45.06535, 73.47886, 45.06535, 0, 0
Line.L11, 1462.252, 896.8756, 1462.252, 896.8756, 0, 0
Line.L12, 1472.802, 893.0172, 1472.802, 893.0172, 0, 0
Line.L13, 21.32227, 10.92905, 21.32227, 10.92905, 0, 0
Line.L14, 365.1532, 172.4355, 365.1532, 172.4355, 0, 0
Line.L15, -7.458616E-7, -7.564334, -7.458616E-7, -7.564334, 0, 0
Line.L16, 0.380536, -7.315187, 0.380536, -7.315187, 0, 0
Line.L17, 0.380536, -7.315187, 0.380536, -7.315187, 0, 0
Line.L18, 86.25514, 32.41287, 86.25514, 32.41287, 0, 0
Line.L19, 5.424939, 2.038837, 5.424939, 2.038837, 0, 0
Line.L20, 230.027, 86.47858, 230.027, 86.47858, 0, 0
Line.L21, 178.9711, 41.32241, 178.9711, 41.32241, 0, 0
Line.L22, 731.251, 456.3297, 731.251, 456.3297, 0, 0
Line.L23, 965.4099, 606.5691, 965.4099, 606.5691, 0, 0
Line.L24, 12.46108, -0.01243437, 12.46108, -0.01243437, 0, 0
Line.L25, 73.67805, 18.26993, 73.67805, 18.26993, 0, 0
Line.L26, 206.7751, 78.13165, 206.7751, 78.13165, 0, 0
Line.L27, 2.972004E-7, -36.04408, 2.972004E-7, -36.04408, 0, 0
Line.L28, 874.4331, 536.3911, 874.4331, 536.3911, 0, 0
Line.L29, 3976.034, 2527.401, 3976.034, 2527.401, 0, 0
Line.L30, 3557.808, 2253.883, 3557.808, 2253.883, 0, 0
Line.L31, 914.4062, 559.6143, 914.4062, 559.6143, 0, 0
Line.L32, 611.7077, 372.1344, 611.7077, 372.1344, 0, 0
Line.L33, 1133.475, 670.3662, 1133.475, 670.3662, 0, 0
Line.L34, 39.18279, 22.66197, 39.18279, 22.66197, 0, 0
Line.L35, -6.10199E-7, -2.987578, -6.10199E-7, -2.987578, 0, 0
Line.L36, 12.55122, 5.216752, 12.55122, 5.216752, 0, 0
Line.L37, 190.9276, 50.1778, 190.9276, 50.1778, 0, 0
Line.L38, 146.1376, 21.21134, 146.1376, 21.21134, 0, 0
Line.L39, 11.83141, -5.283003, 11.83141, -5.283003, 0, 0
Line.L40, 6.592715, -10.20876, 6.592715, -10.20876, 0, 0
Line.L41, 3.649934E-8, -15.72185, 3.649934E-8, -15.72185, 0, 0
Line.L42, 920.8203, 532.633, 920.8203, 532.633, 0, 0
Line.L43, 241.4222, 137.1649, 241.4222, 137.1649, 0, 0
Line.L44, 221.7959, 121.3465, 221.7959, 121.3465, 0, 0
Line.L45, 2.817993E-7, -16.38924, 2.817993E-7, -16.38924, 0, 0
Line.L46, 277.2546, 151.7053, 277.2546, 151.7053, 0, 0
Line.L47, 132.7819, 58.63477, 132.7819, 58.63477, 0, 0
Line.L48, 46.58441, -27.54502, 46.58441, -27.54502, 0, 0
Line.L49, -1.880611E-7, -2.975897, -1.880611E-7, -2.975897, 0, 0
Line.L50, 7.46325E-7, -74.3975, 7.46325E-7, -74.3975, 0, 0
Line.L51, 19.11788, -11.29069, 19.11788, -11.29069, 0, 0
Line.L52, 11.94544, -51.68488, 11.94544, -51.68488, 0, 0
Line.L53, 7.042659E-7, -74.37421, 7.042659E-7, -74.37421, 0, 0
Transformer.COLONY, 2169.382, 3446.587, 2169.382, 3446.587, 0, 0
Transformer.LOTLIKAR_NAGA_MASJID, 3958.409, 6288.727, 3958.409, 6288.727, 0, 0
Transformer.USMANIA, 1984.511, 3152.792, 1984.511, 3152.792, 0, 0
Transformer.VARKHANDE, 2424.086, 3851.182, 2424.086, 3851.182, 0, 0
Transformer.VRUDHAVAN_GARDEN, 2205.069, 3503.278, 2205.069, 3503.278, 0, 0
Transformer.NAGAMASJID_NEW, 0, 0, 0, 0, 0, 0
Transformer.ANGARKI, 3991.01, 6340.515, 3991.01, 6340.515, 0, 0
Transformer.GANGANATH, 3995.443, 6347.557, 3995.443, 6347.557, 0, 0
Transformer.HERITAGE_I, 3.237558E-9, 0.390059, 3.237558E-9, 0.390059, 0, 0
Transformer.HERITAGE_II, 3.07366E-9, 0.3900662, 3.07366E-9, 0.3900662, 0, 0
Transformer.ALMEDA, 3192.511, 5071.941, 3192.511, 5071.941, 0, 0
Transformer.PATIL, 3050.745, 4846.762, 3050.745, 4846.762, 0, 0
Transformer.PUROHIT, 3957.134, 6286.697, 3957.134, 6286.697, 0, 0
Transformer.BHARDWAJ, 1529.17, 2429.413, 1529.17, 2429.413, 0, 0
Transformer.MAHALAXMI_DEV, 4462.349, 7089.497, 4462.349, 7089.497, 0, 0
Transformer.KEDAR, 3950.809, 6276.649, 3950.809, 6276.649, 0, 0
Transformer.DESSAI_SANTOBA, 1532.928, 2435.478, 1532.928, 2435.478, 0, 0
Transformer.RANI_CONSTRUCTION, 1529.86, 2430.509, 1529.86, 2430.509, 0, 0
Transformer.MAHARUDRA, 4460.257, 7086.173, 4460.257, 7086.173, 0, 0
Transformer.RAVINAGAR, 3152.125, 5007.779, 3152.125, 5007.779, 0, 0
Transformer.FRIENDS_COLONY, 1966.359, 3123.954, 1966.359, 3123.954, 0, 0
Transformer.KHADPABANDH_GARDEN_II, 1536.986, 2442.033, 1536.986, 2442.033, 0, 0
Transformer.KHADPABANDH_GARDEN_I, 4857.248, 7717.069, 4857.248, 7717.069, 0, 0
Transformer.SPORTS_COMPLEX, 3990.451, 6339.628, 3990.451, 6339.628, 0, 0
Transformer.BHAGWATI_I, 3921.534, 6230.14, 3921.534, 6230.14, 0, 0
Transformer.BHAGWATI_II, 3922.288, 6231.337, 3922.288, 6231.337, 0, 0
Transformer.SEWERAGE_HTC, 8415.988, 13370.78, 8415.988, 13370.78, 0, 0
Transformer.SPORTS_COMPLEX_HTC, 3931.264, 6245.659, 3931.264, 6245.659, 0, 0
Transformer.SUNGRACE_HTC, 2205.774, 3504.398, 2205.774, 3504.398, 0, 0
